[pytest]
markers =
    integration: tests that execute the MODFLOW 6 binary
testpaths = tests
